Circuit: * C:\Users\lukas\Dropbox\TGM\TGM_4\Semesterprojekt\Front-End\OPV_pre-amplifier.asc

Fatal Error: Unknown subcircuit called in:
   xu2 n001 n002 n001 opamp aol=100k gbw=10meg
