Circuit: * D:\Semesterprojekt\ProjectOsziFPGA\Pegelwandler\Pegelwandler.asc

Limiting rise time of source v1 to 1e-007
Limiting fall time of source v1 to 1e-007
Direct Newton iteration for .op point succeeded.

Date: Sat Apr 17 15:11:34 2021
Total elapsed time: 0.077 seconds.

tnom = 27
temp = 27
method = modified trap
totiter = 2848
traniter = 2841
tranpoints = 1259
accept = 1187
rejected = 72
matrix size = 11
fillins = 0
solver = Normal
Matrix Compiler1: 556 bytes object code size  0.1/0.1/[0.1]
Matrix Compiler2: 813 bytes object code size  0.1/0.1/[0.1]

